<NUMBER OF ZONES> 6
<TOTAL OD FLOW>   100.0
<END OF METADATA>

Origin 	1
    12:      100.0;
