<NUMBER OF ZONES> 6
<NUMBER OF NODES> 12
<FIRST THRU NODE> 1
<NUMBER OF LINKS> 34
<END OF METADATA>
~	Link travel time = free flow time * ( 1 + B * (flow/capacity)^Power ).
~ 	Init node 	Term node 	Capacity 	Length		Free Flow Time		B	Power	Speed limit 	Toll 	Type;
1	2	1	5	20.0	0.0004			4.0	0.0	0	1;
1	5	1	5	18.0	4.4444444444444e-4	4.0	0.0	0	1;
2	1	1	5	20.0	0.0004			4.0	0.0	0	1;
2	3	1	5	23.0	3.4782608695652e-4	4.0	0.0	0	1;
2	6	1	5	19.0	4.2105263157894e-4	4.0	0.0	0	1;
3	2	1	5	23.0	3.4782608695652e-4	4.0	0.0	0	1;
3	4	1	5	17.0	4.7058823529411e-4	4.0	0.0	0	1;
3	7	1	5	16.0	0.0005			4.0	0.0	0	1;
4	3	1	5	17.0	4.7058823529411e-4	4.0	0.0	0	1;
4	8	1	5	22.0	3.6363636363636e-4	4.0	0.0	0	1;
5	1	1	5	18.0	4.4444444444444e-4	4.0	0.0	0	1;
5	6	1	5	14.0	5.7142857142857e-4	4.0	0.0	0	1;
5	9	1	5	24.0	3.3333333333333e-4	4.0	0.0	0	1;
6	2	1	5	19.0	4.2105263157894e-4	4.0	0.0	0	1;
6	5	1	5	14.0	5.7142857142857e-4	4.0	0.0	0	1;
6	7	1	5	17.0	4.7058823529411e-4	4.0	0.0	0	1;
6	10	1	5	20.0	0.0004			4.0	0.0	0	1;
7	3	1	5	16.0	0.0005			4.0	0.0	0	1;
7	6	1	5	17.0	4.7058823529411e-4	4.0	0.0	0	1;
7	8	1	5	13.0	6.1538461538461e-4	4.0	0.0	0	1;
7	11	1	5	26.0	3.0769230769230e-4	4.0	0.0	0	1;
8	4	1	5	22.0	3.6363636363636e-4	4.0	0.0	0	1;
8	7	1	5	13.0	6.1538461538461e-4	4.0	0.0	0	1;
8	12	1	5	19.0	4.2105263157894e-4	4.0	0.0	0	1;
9	5	1	5	24.0	3.3333333333333e-4	4.0	0.0	0	1;
9	10	1	5	7.0	11.428571428571e-4	4.0	0.0	0	1;
10	6	1	5	20.0	0.0004			4.0	0.0	0	1;
10	9	1	5	7.0	11.428571428571e-4	4.0	0.0	0	1;
10	11	1	5	18.0	4.4444444444444e-4	4.0	0.0	0	1;
11	7	1	5	26.0	3.0769230769230e-4	4.0	0.0	0	1;
11	10	1	5	18.0	4.4444444444444e-4	4.0	0.0	0	1;
11	12	1	5	17.0	4.7058823529411e-5	4.0	0.0	0	1;
12	8	1	5	19.0	4.2105263157894e-4	4.0	0.0	0	1;
12	11	1	5	17.0	4.7058823529411e-5	4.0	0.0	0	1;
